
**** 10/28/25 18:33:27 *** PSpice 25.1.0 (14 September 2025) ** ID# 0 ********

 ** Profile: "SCHEMATIC1-p1_ac"  [ c:\users\alexc\appdata\roaming\spb_data\cdssetup\workspace\projects\proiect_cef2p1\proiect_cef2p1-


 ****     CIRCUIT DESCRIPTION


******************************************************************************




** Creating circuit file "p1_ac.cir" 
** WARNING: THIS AUTOMATICALLY GENERATED FILE MAY BE OVERWRITTEN BY SUBSEQUENT SIMULATIONS

*Libraries: 
* Profile Libraries :
* Local Libraries :
.LIB "C:/Users/alexc/Downloads/Modele PSpice_Anexa 1/Lib_ModelePSpice_Anexa_1/Lib_ModelePSpice_Anexa_1/Modele_A1_lib/BC846B.lib" 
.LIB "C:/Users/alexc/Downloads/Modele PSpice_Anexa 1/Lib_ModelePSpice_Anexa_1/Lib_ModelePSpice_Anexa_1/Modele_A1_lib/BC856B.lib" 
.LIB "C:/Users/alexc/Downloads/Modele PSpice_Anexa 1/Lib_ModelePSpice_Anexa_1/Lib_ModelePSpice_Anexa_1/Modele_A1_lib/BZX84C2V7.lib" 
* From [PSPICE NETLIST] section of C:\Users\alexc\AppData\Roaming\SPB_Data\cdssetup\OrCAD_PSpice\25.1.0\PSpice.ini file:
.lib "nom.lib" 

*Analysis directives: 
.OPTIONS ADVCONV
.PROBE64 V(alias(*)) I(alias(*)) W(alias(*)) D(alias(*)) NOISE(alias(*)) 
.INC "..\SCHEMATIC1.net" 



**** INCLUDING SCHEMATIC1.net ****
* source PROIECT_CEF2P1
D_D1         0 N00343 BZX84-C2V7 
V_V1         N00085 0 5Vdc
Q_Q1         N00280 N00265 N00085 QBC856B 
R_R1         N00265 N00085  0.5k TC=0,0 
Q_Q2         N00343 N00280 N00265 QBC856B 
R_R2         0 N00280  1k TC=0,0 
Q_Q3         N005512 N00343 N00580 QBC846B 
Q_Q4         N005692 N00729 N00580 QBC846B 
R_R3         N005512 N00085  1k TC=0,0 
R_R4         N005692 N00085  1k TC=0,0 
D_D2         N00976 0 D1N4148 
R_R6         N00976 N00085  1k TC=0,0 
Q_Q5         N00580 N00976 0 QBC846B 

**** RESUMING p1_ac.cir ****
.END

INFO(ORPSIM-15423): Unable to find index file BC846B.ind for library file BC846B.lib.

INFO(ORPSIM-15422): Making new index file BC846B.ind for library file BC846B.lib.

Index has 1 entries from 1 file(s).

ERROR(ORPSIM-15141): Less than 2 connections at node N00729.
