
**** 11/13/25 20:37:33 *** PSpice 25.1.0 (14 September 2025) ** ID# 0 ********

 ** Profile: "SCHEMATIC1-test_p1"  [ c:\users\alexc\appdata\roaming\spb_data\cdssetup\workspace\projects\proiect_cef2p1\proiect_cef2p


 ****     CIRCUIT DESCRIPTION


******************************************************************************




** Creating circuit file "test_p1.cir" 
** WARNING: THIS AUTOMATICALLY GENERATED FILE MAY BE OVERWRITTEN BY SUBSEQUENT SIMULATIONS

*Libraries: 
* Profile Libraries :
* Local Libraries :
.LIB "C:/Users/alexc/Downloads/Modele PSpice_Anexa 1/Lib_ModelePSpice_Anexa_1/Lib_ModelePSpice_Anexa_1/Modele_A1_lib/MJD31CG.lib" 
.LIB "C:/Users/alexc/Downloads/Modele PSpice_Anexa 1/Lib_ModelePSpice_Anexa_1/Lib_ModelePSpice_Anexa_1/Modele_A1_lib/BC807-25.lib" 
.LIB "C:/Users/alexc/Downloads/Modele PSpice_Anexa 1/Lib_ModelePSpice_Anexa_1/Lib_ModelePSpice_Anexa_1/Modele_A1_lib/BC817-25.lib" 
.LIB "C:/Users/alexc/Downloads/Modele PSpice_Anexa 1/Lib_ModelePSpice_Anexa_1/Lib_ModelePSpice_Anexa_1/Modele_A1_lib/MJD32CG.lib" 
.LIB "C:/Users/alexc/Downloads/Modele PSpice_Anexa 1/Lib_ModelePSpice_Anexa_1/Lib_ModelePSpice_Anexa_1/Modele_A1_lib/BC846B.lib" 
.LIB "C:/Users/alexc/Downloads/Modele PSpice_Anexa 1/Lib_ModelePSpice_Anexa_1/Lib_ModelePSpice_Anexa_1/Modele_A1_lib/BC856B.lib" 
.LIB "C:/Users/alexc/Downloads/Modele PSpice_Anexa 1/Lib_ModelePSpice_Anexa_1/Lib_ModelePSpice_Anexa_1/Modele_A1_lib/BZX84C2V7.lib" 
* From [PSPICE NETLIST] section of C:\Users\alexc\AppData\Roaming\SPB_Data\cdssetup\OrCAD_PSpice\25.1.0\PSpice.ini file:
.lib "nom.lib" 

*Analysis directives: 
.DC LIN V_V1 9 10 0.01 
.OPTIONS ADVCONV
.PROBE64 V(alias(*)) I(alias(*)) W(alias(*)) D(alias(*)) NOISE(alias(*)) 
.INC "..\SCHEMATIC1.net" 



**** INCLUDING SCHEMATIC1.net ****
* source PROIECT_CEF2P1
D_D1         0 N11805 BZX84-C2V7 
V_V1         N00085 0 10Vdc
R_R1         N14416 N00085  75 TC=0,0 
Q_Q3         N20903 N11805 N00584 QBC846B 
Q_Q4         N02260 N23113 N00584 QBC846B 
R_R3         N20895 N00085  1k TC=0,0 
R_R4         N20899 N00085  1k TC=0,0 
D_D2         N00976 N008991 D1N4148 
R_R6         N00976 N00085  1k TC=0,0 
Q_Q5         N00584 N00976 N010211 QBC846B 
R_R9         N09148 N02434  1.8k TC=0,0 
R_R10         0 N09152  2.7k TC=0,0 
R_RL         0 N02434  200 TC=0,0 
X_R11         N09148 N23113 N09152 POT PARAMS: SET=0.55 VALUE=10K
Q_Q8         N02260 N02271 N02434 QBC817-25 
R_R12         0 N010211  220 TC=0,0 
D_D3         N008991 0 D1N4148 
Q_Q9         N00085 N107740 N02271 QBC846B 
R_R13         N02271 N02434  1.5 TC=0,0 
X_R14         0 N12091 N11805 POT PARAMS: SET=0.84 VALUE=10K
Q_Q10         N02260 N12091 0 QBC817-25 
Q_Q11         N11805 N14501 N14416 QBC856B 
Q_Q12         N14501 N14416 N00085 QBC856B 
R_R15         0 N14501  1k TC=0,0 
C_C2         0 N02434  10n  TC=0,0 
Q_Q13         N00085 N02260 N107740 QBC846B 
Q_Q14         N20903 N20903 N20895 QBC807-25 
Q_Q15         N02260 N20903 N20899 QBC807-25 

**** RESUMING test_p1.cir ****
.END

**** 11/13/25 20:37:33 *** PSpice 25.1.0 (14 September 2025) ** ID# 0 ********

 ** Profile: "SCHEMATIC1-test_p1"  [ c:\users\alexc\appdata\roaming\spb_data\cdssetup\workspace\projects\proiect_cef2p1\proiect_cef2p


 ****     Diode MODEL PARAMETERS


******************************************************************************




               BZX84-C2V7      D1N4148         
          IS  110.880000E-18    2.682000E-09 
           N     .92657         1.836        
         ISR    1.515900E-06    1.565000E-09 
         IKF  147.68             .04417      
          BV    2.7639        100            
         IBV     .06977       100.000000E-06 
          RS     .85899          .5664       
          TT   17.889000E-09   11.540000E-09 
         CJO  344.690000E-12    4.000000E-12 
          VJ     .72935          .5          
           M     .31964          .3333       


**** 11/13/25 20:37:33 *** PSpice 25.1.0 (14 September 2025) ** ID# 0 ********

 ** Profile: "SCHEMATIC1-test_p1"  [ c:\users\alexc\appdata\roaming\spb_data\cdssetup\workspace\projects\proiect_cef2p1\proiect_cef2p


 ****     BJT MODEL PARAMETERS


******************************************************************************




               QBC807-25       QBC817-25       QBC846B         QBC856B         
               PNP             NPN             NPN             PNP             
       LEVEL    1               1               1               1            
          IS  108.000000E-15   91.980000E-15   18.220000E-15   20.140000E-15 
          BF  385.7           338.8           324.4           315.3          
          NF     .99            1.003            .9932           .9974       
         VAF   31.29          107.9            82              39.15         
         IKF     .3603           .4913           .109            .079        
         ISE   27.130000E-15  446.800000E-18  289.400000E-18    6.578000E-15 
          NE    1.4             1.65            1.4             1.45         
          BR   20.57           29.48            8.29            8.68         
          NR     .9849          1.002            .9931           .9952       
         VAR   11.62           25              17.9             9.5          
         IKR     .054            .193            .09             .09         
         ISC  506.200000E-15    5.109000E-15    9.982000E-12   16.330000E-15 
          NC    1.295           1.071           1.763           1.15         
         ISS    0               0               0               0            
          RB    1               1              10              10            
         RBM     .5             1               5               5.000000E-06 
         IRB    1.000000E-06    1.000000E+03    5.000000E-06    5.000000E-06 
          RE     .1415           .2126           .649            .663        
          RC     .2623           .143            .7014           .718        
         CJE   51.140000E-12   38.250000E-12   12.440000E-12   11.350000E-12 
         VJE     .8911           .7004           .7579           .7071       
         MJE     .4417           .364            .3656           .3808       
         CJC   26.560000E-12   12.700000E-12    3.347000E-12    6.395000E-12 
         VJC     .62             .4431           .5463           .4951       
         MJC     .4836           .3983           .391            .44         
        XCJC     .459            .4555           .6193           .6288       
         CJS    0               0               0               0            
         VJS     .75             .75             .75             .75         
         MJS     .333            .333            .333            .333        
          FC     .99             .905            .979            .9059       
          TF  735.900000E-12  522.900000E-12  490.800000E-12  654.600000E-12 
         XTF    1.859         219.7             9.51            5.387        
         VTF    3.813           3.502           2.927           6.245        
         ITF     .4393          7.257            .3131           .2108       
          TR   50.000000E-09   70.000000E-12   90.000000E-09   55.000000E-09 
          KF    0               0               0               0            
          AF    1               1               1               1            
          CN    2.2             2.42            2.42            2.2          
           D     .52             .87             .87             .52         



          JOB CONCLUDED

**** 11/13/25 20:37:33 *** PSpice 25.1.0 (14 September 2025) ** ID# 0 ********

 ** Profile: "SCHEMATIC1-test_p1"  [ c:\users\alexc\appdata\roaming\spb_data\cdssetup\workspace\projects\proiect_cef2p1\proiect_cef2p


 ****     JOB STATISTICS SUMMARY


******************************************************************************



  Total job time (using Solver 1)   =         .03
