
**** 11/11/25 20:45:26 *** PSpice 25.1.0 (14 September 2025) ** ID# 0 ********

 ** Profile: "SCHEMATIC1-prot_temp"  [ c:\users\alexc\appdata\roaming\spb_data\cdssetup\workspace\projects\proiect_cef2p1\proiect_cef


 ****     CIRCUIT DESCRIPTION


******************************************************************************




** Creating circuit file "prot_temp.cir" 
** WARNING: THIS AUTOMATICALLY GENERATED FILE MAY BE OVERWRITTEN BY SUBSEQUENT SIMULATIONS

*Libraries: 
* Profile Libraries :
* Local Libraries :
.LIB "C:/Users/alexc/Downloads/Modele PSpice_Anexa 1/Lib_ModelePSpice_Anexa_1/Lib_ModelePSpice_Anexa_1/Modele_A1_lib/BC807-25.lib" 
.LIB "C:/Users/alexc/Downloads/Modele PSpice_Anexa 1/Lib_ModelePSpice_Anexa_1/Lib_ModelePSpice_Anexa_1/Modele_A1_lib/BC817-25.lib" 
.LIB "C:/Users/alexc/Downloads/Modele PSpice_Anexa 1/Lib_ModelePSpice_Anexa_1/Lib_ModelePSpice_Anexa_1/Modele_A1_lib/MJD32CG.lib" 
.LIB "C:/Users/alexc/Downloads/Modele PSpice_Anexa 1/Lib_ModelePSpice_Anexa_1/Lib_ModelePSpice_Anexa_1/Modele_A1_lib/BC846B.lib" 
.LIB "C:/Users/alexc/Downloads/Modele PSpice_Anexa 1/Lib_ModelePSpice_Anexa_1/Lib_ModelePSpice_Anexa_1/Modele_A1_lib/BC856B.lib" 
.LIB "C:/Users/alexc/Downloads/Modele PSpice_Anexa 1/Lib_ModelePSpice_Anexa_1/Lib_ModelePSpice_Anexa_1/Modele_A1_lib/BZX84C2V7.lib" 
* From [PSPICE NETLIST] section of C:\Users\alexc\AppData\Roaming\SPB_Data\cdssetup\OrCAD_PSpice\25.1.0\PSpice.ini file:
.lib "nom.lib" 

*Analysis directives: 
.OP
.OPTIONS ADVCONV
.PROBE64 V(alias(*)) I(alias(*)) W(alias(*)) D(alias(*)) NOISE(alias(*)) 
.INC "..\SCHEMATIC1.net" 



**** INCLUDING SCHEMATIC1.net ****
* source PROIECT_CEF2P1
D_D1         0 N11805 BZX84-C2V7 
V_V1         N00085 0 10Vdc
R_R1         N14416 N00085  75 TC=0,0 
Q_Q3         N20903 N11805 N00584 QBC846B 
Q_Q4         N20911 N15400 N00584 QBC846B 
R_R3         N20895 N00085  1k TC=0,0 
R_R4         N20899 N00085  1k TC=0,0 
R_R6         N21239 N11805  1k TC=0,0 
Q_Q5         N00584 N21239 N010211 QBC846B 
R_R9         N09148 N02434  1.8k TC=0,0 
R_R10         0 N09152  2.7k TC=0,0 
R_RL         0 N02434  200 TC=0,0 
X_R11         N09148 N091382 N09152 POT PARAMS: SET=0.55 VALUE=10K
Q_Q8         N02260 N02271 N02434 QBC817-25 
R_R12         0 N010211  220 TC=0,0 
R_R13         N02271 N02434  1.5 TC=0,0 
X_R14         0 N12091 N11805 POT PARAMS: SET=0.84 VALUE=10K
Q_Q10         N02260 N12091 0 QBC817-25 
Q_Q11         N11805 N14501 N14416 QBC856B 
Q_Q12         N14501 N14416 N00085 QBC856B 
R_R15         0 N14501  1k TC=0,0 
L_L1         N15400 N091382  1Meg  TC=0,0 
C_C2         0 N02434  10n  TC=0,0 
C_C1         N20162 N15400  1Meg  TC=0,0 
Q_Q13         N00085 N02260 N180751 QBC846B 
V_V2         N20162 0 DC 0Vdc AC 1Vac 
Q_Q14         N20903 N20903 N20895 QBC807-25 
Q_Q15         N20911 N20903 N20899 QBC807-25 
Q_Q16         N21239 N21239 0 QBC846B 
Q_Q17         N00085 N180751 N02271 QMJD31C 

**** RESUMING prot_temp.cir ****
.END


ERROR(ORPSIM-15113): Model QMJD31C used by Q_Q17 is undefined
